729

Fe -3.70041 -6.40795 -7.48401
Fe -0.00042 -12.81565 -7.48401
Fe -11.10081 -6.40819 -7.48401
S -5.85561 -1.52940 -7.48401
S -1.54521 -11.28649 -7.48401
S -10.54914 -4.30561 -7.48401
S  3.14832 -8.51029 -7.48401
S -5.79730 -6.98187 -7.48401
S -1.60352 -5.83402 -7.48401
S  1.60307 -5.83396 -7.48401
S -9.00388 -6.98194 -7.48401
S  1.54491 -11.28693 -7.48401
S -8.94573 -1.52897 -7.48401
S -3.14826 -8.51032 -7.48401
S -4.25256 -4.30557 -7.48401
C -8.82515 -4.27533 -7.48401
C  1.42433 -8.54056 -7.48401
C -6.68590 -5.50435 -7.48401
C -0.71491 -7.31154 -7.48401
C -6.69127 -3.03752 -7.48401
C -0.70954 -9.77837 -7.48401
C  0.70969 -9.77858 -7.48401
C -8.11051 -3.03732 -7.48401
C -1.42428 -8.54051 -7.48401
C -5.97654 -4.27538 -7.48401
C  0.71479 -7.31170 -7.48401
C -8.11561 -5.50419 -7.48401
Fe -3.70042 -6.40795  7.48401
Fe -0.00042 -12.81565  7.48401
Fe -11.10081 -6.40819  7.48401
S -5.85562 -1.52940  7.48401
S -1.54521 -11.28649  7.48401
S -10.54914 -4.30561  7.48401
S  3.14832 -8.51029  7.48401
S -5.79730 -6.98187  7.48401
S -1.60353 -5.83402  7.48401
S  1.60306 -5.83396  7.48401
S -9.00388 -6.98194  7.48401
S  1.54491 -11.28693  7.48401
S -8.94574 -1.52897  7.48401
S -3.14826 -8.51032  7.48401
S -4.25256 -4.30557  7.48401
C -8.82515 -4.27533  7.48401
C  1.42433 -8.54056  7.48401
C -6.68591 -5.50435  7.48401
C -0.71492 -7.31154  7.48401
C -6.69128 -3.03752  7.48401
C -0.70955 -9.77837  7.48401
C  0.70969 -9.77858  7.48401
C -8.11051 -3.03732  7.48401
C -1.42428 -8.54051  7.48401
C -5.97654 -4.27538  7.48401
C  0.71479 -7.31170  7.48401
C -8.11561 -5.50419  7.48401
Fe -3.70042 -6.40795 22.45202
Fe -0.00043 -12.81565 22.45202
Fe -11.10082 -6.40819 22.45202
S -5.85562 -1.52940 22.45202
S -1.54522 -11.28649 22.45202
S -10.54915 -4.30561 22.45202
S  3.14831 -8.51029 22.45202
S -5.79731 -6.98187 22.45202
S -1.60353 -5.83402 22.45202
S  1.60306 -5.83396 22.45202
S -9.00389 -6.98194 22.45202
S  1.54490 -11.28693 22.45202
S -8.94574 -1.52897 22.45202
S -3.14827 -8.51033 22.45202
S -4.25257 -4.30557 22.45202
C -8.82516 -4.27533 22.45202
C  1.42432 -8.54056 22.45202
C -6.68591 -5.50435 22.45202
C -0.71492 -7.31154 22.45202
C -6.69128 -3.03752 22.45202
C -0.70956 -9.77837 22.45202
C  0.70968 -9.77858 22.45202
C -8.11052 -3.03732 22.45202
C -1.42429 -8.54051 22.45202
C -5.97655 -4.27538 22.45202
C  0.71478 -7.31170 22.45202
C -8.11562 -5.50419 22.45202
Fe -11.10039  6.40746 -7.48401
Fe -7.40040 -0.00024 -7.48401
Fe -18.50079  6.40722 -7.48401
S -13.25560 11.28601 -7.48401
S -8.94519  1.52892 -7.48401
S -17.94912  8.50980 -7.48401
S -4.25166  4.30512 -7.48401
S -13.19728  5.83354 -7.48401
S -9.00350  6.98139 -7.48401
S -5.79692  6.98145 -7.48401
S -16.40386  5.83347 -7.48401
S -5.85507  1.52848 -7.48401
S -16.34572 11.28644 -7.48401
S -10.54824  4.30508 -7.48401
S -11.65254  8.50984 -7.48401
C -16.22513  8.54008 -7.48401
C -5.97565  4.27485 -7.48401
C -14.08589  7.31106 -7.48401
C -8.11490  5.50387 -7.48401
C -14.09126  9.77789 -7.48401
C -8.10953  3.03704 -7.48401
C -6.69029  3.03683 -7.48401
C -15.51049  9.77809 -7.48401
C -8.82426  4.27490 -7.48401
C -13.37652  8.54002 -7.48401
C -6.68519  5.50371 -7.48401
C -15.51559  7.31122 -7.48401
Fe -11.10040  6.40746  7.48401
Fe -7.40041 -0.00024  7.48401
Fe -18.50080  6.40722  7.48401
S -13.25560 11.28601  7.48401
S -8.94520  1.52892  7.48401
S -17.94913  8.50980  7.48401
S -4.25167  4.30512  7.48401
S -13.19729  5.83354  7.48401
S -9.00351  6.98139  7.48401
S -5.79692  6.98145  7.48401
S -16.40387  5.83347  7.48401
S -5.85508  1.52848  7.48401
S -16.34572 11.28644  7.48401
S -10.54825  4.30508  7.48401
S -11.65255  8.50984  7.48401
C -16.22514  8.54008  7.48401
C -5.97566  4.27485  7.48401
C -14.08589  7.31106  7.48401
C -8.11490  5.50387  7.48401
C -14.09126  9.77789  7.48401
C -8.10953  3.03704  7.48401
C -6.69030  3.03683  7.48401
C -15.51050  9.77809  7.48401
C -8.82427  4.27490  7.48401
C -13.37653  8.54002  7.48401
C -6.68520  5.50371  7.48401
C -15.51560  7.31122  7.48401
Fe -11.10040  6.40746 22.45202
Fe -7.40041 -0.00024 22.45202
Fe -18.50080  6.40722 22.45202
S -13.25561 11.28601 22.45202
S -8.94520  1.52892 22.45202
S -17.94913  8.50980 22.45202
S -4.25167  4.30512 22.45202
S -13.19729  5.83354 22.45202
S -9.00352  6.98139 22.45202
S -5.79693  6.98145 22.45202
S -16.40387  5.83347 22.45202
S -5.85508  1.52848 22.45202
S -16.34573 11.28644 22.45202
S -10.54825  4.30508 22.45202
S -11.65255  8.50984 22.45202
C -16.22514  8.54008 22.45202
C -5.97566  4.27484 22.45202
C -14.08590  7.31106 22.45202
C -8.11491  5.50386 22.45202
C -14.09127  9.77789 22.45202
C -8.10954  3.03704 22.45202
C -6.69030  3.03683 22.45202
C -15.51050  9.77809 22.45202
C -8.82427  4.27490 22.45202
C -13.37653  8.54002 22.45202
C -6.68520  5.50371 22.45202
C -15.51560  7.31122 22.45202
Fe -18.50038 19.22287 -7.48401
Fe -14.80039 12.81517 -7.48401
Fe -25.90078 19.22263 -7.48401
S -20.65558 24.10142 -7.48400
S -16.34517 14.34433 -7.48401
S -25.34911 21.32521 -7.48400
S -11.65165 17.12053 -7.48401
S -20.59727 18.64895 -7.48401
S -16.40349 19.79680 -7.48400
S -13.19690 19.79686 -7.48400
S -23.80385 18.64888 -7.48401
S -13.25506 14.34389 -7.48401
S -23.74570 24.10185 -7.48400
S -17.94823 17.12049 -7.48401
S -19.05253 21.32525 -7.48400
C -23.62512 21.35549 -7.48400
C -13.37564 17.09025 -7.48401
C -21.48587 20.12647 -7.48401
C -15.51488 18.31927 -7.48401
C -21.49124 22.59330 -7.48400
C -15.50951 15.85245 -7.48401
C -14.09028 15.85224 -7.48401
C -22.91048 22.59350 -7.48400
C -16.22425 17.09031 -7.48401
C -20.77651 21.35543 -7.48400
C -14.08518 18.31912 -7.48400
C -22.91557 20.12663 -7.48401
Fe -18.50038 19.22287  7.48401
Fe -14.80039 12.81517  7.48401
Fe -25.90078 19.22262  7.48401
S -20.65559 24.10142  7.48401
S -16.34518 14.34433  7.48401
S -25.34911 21.32521  7.48401
S -11.65165 17.12053  7.48401
S -20.59727 18.64895  7.48401
S -16.40349 19.79679  7.48401
S -13.19691 19.79686  7.48401
S -23.80385 18.64888  7.48401
S -13.25506 14.34389  7.48401
S -23.74571 24.10185  7.48401
S -17.94823 17.12049  7.48401
S -19.05253 21.32525  7.48401
C -23.62512 21.35549  7.48401
C -13.37564 17.09025  7.48401
C -21.48587 20.12647  7.48401
C -15.51489 18.31927  7.48401
C -21.49125 22.59330  7.48401
C -15.50952 15.85244  7.48401
C -14.09028 15.85224  7.48401
C -22.91048 22.59350  7.48401
C -16.22425 17.09031  7.48401
C -20.77651 21.35543  7.48401
C -14.08518 18.31912  7.48401
C -22.91558 20.12662  7.48401
Fe -18.50039 19.22287 22.45203
Fe -14.80040 12.81517 22.45202
Fe -25.90079 19.22262 22.45203
S -20.65559 24.10141 22.45203
S -16.34518 14.34433 22.45202
S -25.34912 21.32520 22.45203
S -11.65166 17.12053 22.45203
S -20.59728 18.64895 22.45203
S -16.40350 19.79679 22.45203
S -13.19691 19.79686 22.45203
S -23.80386 18.64888 22.45203
S -13.25507 14.34389 22.45203
S -23.74571 24.10185 22.45203
S -17.94824 17.12049 22.45203
S -19.05254 21.32525 22.45203
C -23.62513 21.35549 22.45203
C -13.37565 17.09025 22.45203
C -21.48588 20.12647 22.45203
C -15.51489 18.31927 22.45203
C -21.49125 22.59330 22.45203
C -15.50952 15.85244 22.45203
C -14.09029 15.85224 22.45203
C -22.91049 22.59350 22.45203
C -16.22426 17.09031 22.45203
C -20.77652 21.35543 22.45203
C -14.08519 18.31911 22.45203
C -22.91559 20.12662 22.45203
Fe 11.10040 -6.40746 -7.48401
Fe 14.80039 -12.81517 -7.48401
Fe  3.70000 -6.40771 -7.48401
S  8.94519 -1.52892 -7.48401
S 13.25560 -11.28600 -7.48401
S  4.25167 -4.30513 -7.48401
S 17.94913 -8.50980 -7.48401
S  9.00351 -6.98139 -7.48401
S 13.19729 -5.83354 -7.48401
S 16.40387 -5.83347 -7.48401
S  5.79693 -6.98145 -7.48401
S 16.34572 -11.28644 -7.48401
S  5.85507 -1.52848 -7.48401
S 11.65255 -8.50984 -7.48401
S 10.54825 -4.30508 -7.48401
C  5.97566 -4.27484 -7.48401
C 16.22514 -8.54008 -7.48401
C  8.11490 -5.50386 -7.48401
C 14.08589 -7.31106 -7.48401
C  8.10953 -3.03703 -7.48401
C 14.09126 -9.77789 -7.48401
C 15.51050 -9.77809 -7.48401
C  6.69030 -3.03683 -7.48401
C 13.37653 -8.54002 -7.48401
C  8.82427 -4.27490 -7.48401
C 15.51560 -7.31122 -7.48401
C  6.68520 -5.50371 -7.48401
Fe 11.10039 -6.40746  7.48401
Fe 14.80038 -12.81517  7.48401
Fe  3.69999 -6.40771  7.48401
S  8.94519 -1.52892  7.48401
S 13.25559 -11.28601  7.48401
S  4.25166 -4.30513  7.48401
S 17.94912 -8.50980  7.48401
S  9.00350 -6.98139  7.48401
S 13.19728 -5.83354  7.48401
S 16.40387 -5.83347  7.48401
S  5.79692 -6.98145  7.48401
S 16.34571 -11.28644  7.48401
S  5.85507 -1.52848  7.48401
S 11.65254 -8.50984  7.48401
S 10.54824 -4.30508  7.48401
C  5.97565 -4.27485  7.48401
C 16.22513 -8.54008  7.48401
C  8.11490 -5.50386  7.48401
C 14.08589 -7.31106  7.48401
C  8.10953 -3.03703  7.48401
C 14.09126 -9.77789  7.48401
C 15.51049 -9.77809  7.48401
C  6.69029 -3.03683  7.48401
C 13.37652 -8.54002  7.48401
C  8.82426 -4.27490  7.48401
C 15.51559 -7.31122  7.48401
C  6.68519 -5.50371  7.48401
Fe 11.10039 -6.40746 22.45202
Fe 14.80038 -12.81517 22.45202
Fe  3.69999 -6.40771 22.45202
S  8.94518 -1.52892 22.45202
S 13.25559 -11.28601 22.45202
S  4.25166 -4.30513 22.45202
S 17.94912 -8.50980 22.45202
S  9.00350 -6.98139 22.45202
S 13.19727 -5.83354 22.45202
S 16.40386 -5.83348 22.45202
S  5.79692 -6.98145 22.45202
S 16.34571 -11.28644 22.45202
S  5.85506 -1.52848 22.45202
S 11.65254 -8.50984 22.45202
S 10.54824 -4.30508 22.45202
C  5.97565 -4.27485 22.45202
C 16.22513 -8.54008 22.45202
C  8.11489 -5.50386 22.45202
C 14.08588 -7.31106 22.45202
C  8.10952 -3.03703 22.45202
C 14.09125 -9.77789 22.45202
C 15.51049 -9.77809 22.45202
C  6.69029 -3.03683 22.45202
C 13.37652 -8.54002 22.45202
C  8.82426 -4.27490 22.45202
C 15.51559 -7.31122 22.45202
C  6.68519 -5.50371 22.45202
Fe  3.70041  6.40795 -7.48401
Fe  7.40040  0.00024 -7.48401
Fe -3.69999  6.40770 -7.48401
S  1.54521 11.28649 -7.48401
S  5.85562  1.52940 -7.48401
S -3.14831  8.51028 -7.48401
S 10.54914  4.30561 -7.48401
S  1.60352  5.83402 -7.48401
S  5.79730  6.98187 -7.48401
S  9.00389  6.98193 -7.48401
S -1.60306  5.83396 -7.48401
S  8.94574  1.52897 -7.48401
S -1.54491 11.28693 -7.48401
S  4.25256  4.30557 -7.48401
S  3.14826  8.51033 -7.48401
C -1.42433  8.54056 -7.48401
C  8.82515  4.27533 -7.48401
C  0.71492  7.31155 -7.48401
C  6.68591  5.50435 -7.48401
C  0.70955  9.77837 -7.48401
C  6.69128  3.03752 -7.48401
C  8.11051  3.03732 -7.48401
C -0.70969  9.77858 -7.48401
C  5.97654  4.27539 -7.48401
C  1.42428  8.54051 -7.48401
C  8.11561  5.50419 -7.48401
C -0.71478  7.31170 -7.48401
Fe  3.70041  6.40795  7.48401
Fe  7.40040  0.00024  7.48401
Fe -3.69999  6.40770  7.48401
S  1.54520 11.28649  7.48401
S  5.85561  1.52940  7.48401
S -3.14832  8.51028  7.48401
S 10.54914  4.30560  7.48401
S  1.60352  5.83402  7.48401
S  5.79730  6.98187  7.48401
S  9.00388  6.98193  7.48401
S -1.60306  5.83396  7.48401
S  8.94573  1.52897  7.48401
S -1.54492 11.28692  7.48401
S  4.25256  4.30557  7.48401
S  3.14826  8.51033  7.48401
C -1.42433  8.54056  7.48401
C  8.82515  4.27533  7.48401
C  0.71492  7.31155  7.48401
C  6.68590  5.50435  7.48401
C  0.70954  9.77837  7.48401
C  6.69127  3.03752  7.48401
C  8.11051  3.03732  7.48401
C -0.70969  9.77858  7.48401
C  5.97654  4.27538  7.48401
C  1.42428  8.54051  7.48401
C  8.11561  5.50419  7.48401
C -0.71479  7.31170  7.48401
Fe  3.70040  6.40794 22.45202
Fe  7.40039  0.00024 22.45202
Fe -3.70000  6.40770 22.45202
S  1.54520 11.28649 22.45203
S  5.85561  1.52940 22.45202
S -3.14833  8.51028 22.45202
S 10.54913  4.30560 22.45202
S  1.60351  5.83402 22.45202
S  5.79729  6.98187 22.45202
S  9.00388  6.98193 22.45202
S -1.60307  5.83395 22.45202
S  8.94572  1.52896 22.45202
S -1.54492 11.28692 22.45203
S  4.25255  4.30557 22.45202
S  3.14825  8.51032 22.45202
C -1.42434  8.54056 22.45202
C  8.82514  4.27533 22.45202
C  0.71491  7.31154 22.45202
C  6.68590  5.50435 22.45202
C  0.70954  9.77837 22.45202
C  6.69127  3.03752 22.45202
C  8.11050  3.03731 22.45202
C -0.70970  9.77857 22.45202
C  5.97653  4.27538 22.45202
C  1.42427  8.54051 22.45202
C  8.11560  5.50419 22.45202
C -0.71480  7.31170 22.45202
Fe -3.69957 19.22335 -7.48400
Fe  0.00042 12.81565 -7.48401
Fe -11.09997 19.22311 -7.48400
S -5.85478 24.10190 -7.48400
S -1.54437 14.34481 -7.48401
S -10.54830 21.32569 -7.48400
S  3.14916 17.12101 -7.48400
S -5.79646 18.64943 -7.48400
S -1.60268 19.79728 -7.48400
S  1.60390 19.79734 -7.48400
S -9.00304 18.64936 -7.48400
S  1.54575 14.34437 -7.48400
S -8.94490 24.10233 -7.48400
S -3.14742 17.12098 -7.48400
S -4.25172 21.32573 -7.48400
C -8.82431 21.35597 -7.48400
C  1.42517 17.09074 -7.48400
C -6.68506 20.12695 -7.48400
C -0.71408 18.31976 -7.48400
C -6.69043 22.59378 -7.48400
C -0.70871 15.85293 -7.48400
C  0.71053 15.85272 -7.48400
C -8.10967 22.59398 -7.48400
C -1.42344 17.09079 -7.48400
C -5.97570 21.35592 -7.48400
C  0.71563 18.31960 -7.48400
C -8.11477 20.12711 -7.48400
Fe -3.69958 19.22335  7.48401
Fe  0.00041 12.81565  7.48401
Fe -11.09998 19.22311  7.48401
S -5.85478 24.10190  7.48401
S -1.54437 14.34481  7.48401
S -10.54830 21.32569  7.48401
S  3.14915 17.12101  7.48401
S -5.79647 18.64943  7.48401
S -1.60269 19.79728  7.48401
S  1.60390 19.79734  7.48401
S -9.00305 18.64936  7.48401
S  1.54575 14.34437  7.48401
S -8.94490 24.10233  7.48401
S -3.14743 17.12097  7.48401
S -4.25173 21.32573  7.48401
C -8.82431 21.35597  7.48401
C  1.42516 17.09074  7.48401
C -6.68507 20.12695  7.48401
C -0.71408 18.31976  7.48401
C -6.69044 22.59378  7.48401
C -0.70871 15.85293  7.48401
C  0.71052 15.85272  7.48401
C -8.10968 22.59398  7.48401
C -1.42345 17.09079  7.48401
C -5.97570 21.35592  7.48401
C  0.71562 18.31960  7.48401
C -8.11477 20.12711  7.48401
Fe -3.69958 19.22335 22.45203
Fe  0.00041 12.81565 22.45203
Fe -11.09998 19.22311 22.45203
S -5.85479 24.10190 22.45203
S -1.54438 14.34481 22.45203
S -10.54831 21.32569 22.45203
S  3.14915 17.12101 22.45203
S -5.79647 18.64943 22.45203
S -1.60269 19.79728 22.45203
S  1.60389 19.79734 22.45203
S -9.00305 18.64936 22.45203
S  1.54574 14.34437 22.45203
S -8.94491 24.10233 22.45203
S -3.14743 17.12097 22.45203
S -4.25173 21.32573 22.45203
C -8.82432 21.35597 22.45203
C  1.42516 17.09074 22.45203
C -6.68507 20.12695 22.45203
C -0.71409 18.31976 22.45203
C -6.69045 22.59378 22.45203
C -0.70872 15.85293 22.45203
C  0.71052 15.85272 22.45203
C -8.10968 22.59398 22.45203
C -1.42345 17.09079 22.45203
C -5.97571 21.35592 22.45203
C  0.71562 18.31960 22.45203
C -8.11478 20.12711 22.45203
Fe 25.90120 -6.40698 -7.48401
Fe 29.60119 -12.81468 -7.48401
Fe 18.50080 -6.40722 -7.48401
S 23.74600 -1.52843 -7.48401
S 28.05641 -11.28552 -7.48401
S 19.05248 -4.30464 -7.48401
S 32.74993 -8.50932 -7.48401
S 23.80431 -6.98090 -7.48401
S 27.99809 -5.83305 -7.48401
S 31.20468 -5.83299 -7.48401
S 20.59773 -6.98097 -7.48401
S 31.14653 -11.28596 -7.48401
S 20.65588 -1.52800 -7.48401
S 26.45335 -8.50936 -7.48401
S 25.34905 -4.30460 -7.48401
C 20.77646 -4.27436 -7.48401
C 31.02594 -8.53959 -7.48401
C 22.91571 -5.50338 -7.48401
C 28.88670 -7.31057 -7.48401
C 22.91034 -3.03655 -7.48401
C 28.89207 -9.77740 -7.48401
C 30.31130 -9.77761 -7.48401
C 21.49110 -3.03635 -7.48401
C 28.17733 -8.53954 -7.48401
C 23.62508 -4.27442 -7.48401
C 30.31640 -7.31073 -7.48401
C 21.48601 -5.50322 -7.48401
Fe 25.90120 -6.40698  7.48401
Fe 29.60119 -12.81468  7.48401
Fe 18.50080 -6.40722  7.48401
S 23.74599 -1.52843  7.48401
S 28.05640 -11.28552  7.48401
S 19.05247 -4.30464  7.48401
S 32.74993 -8.50932  7.48401
S 23.80431 -6.98090  7.48401
S 27.99809 -5.83305  7.48401
S 31.20467 -5.83299  7.48401
S 20.59773 -6.98097  7.48401
S 31.14652 -11.28596  7.48401
S 20.65587 -1.52800  7.48401
S 26.45335 -8.50936  7.48401
S 25.34905 -4.30460  7.48401
C 20.77646 -4.27436  7.48401
C 31.02594 -8.53960  7.48401
C 22.91571 -5.50338  7.48401
C 28.88669 -7.31058  7.48401
C 22.91033 -3.03655  7.48401
C 28.89206 -9.77740  7.48401
C 30.31130 -9.77761  7.48401
C 21.49110 -3.03635  7.48401
C 28.17733 -8.53954  7.48401
C 23.62507 -4.27442  7.48401
C 30.31640 -7.31073  7.48401
C 21.48600 -5.50322  7.48401
Fe 25.90119 -6.40698 22.45202
Fe 29.60118 -12.81468 22.45202
Fe 18.50079 -6.40722 22.45202
S 23.74599 -1.52843 22.45202
S 28.05640 -11.28552 22.45202
S 19.05246 -4.30464 22.45202
S 32.74992 -8.50932 22.45202
S 23.80430 -6.98090 22.45202
S 27.99808 -5.83306 22.45202
S 31.20467 -5.83299 22.45202
S 20.59772 -6.98097 22.45202
S 31.14651 -11.28596 22.45202
S 20.65587 -1.52800 22.45202
S 26.45334 -8.50936 22.45202
S 25.34904 -4.30460 22.45202
C 20.77645 -4.27436 22.45202
C 31.02593 -8.53960 22.45202
C 22.91570 -5.50338 22.45202
C 28.88669 -7.31058 22.45202
C 22.91033 -3.03655 22.45202
C 28.89206 -9.77741 22.45202
C 30.31129 -9.77761 22.45202
C 21.49109 -3.03635 22.45202
C 28.17732 -8.53954 22.45202
C 23.62506 -4.27442 22.45202
C 30.31639 -7.31073 22.45202
C 21.48599 -5.50323 22.45202
Fe 18.50122  6.40843 -7.48401
Fe 22.20121  0.00073 -7.48401
Fe 11.10082  6.40818 -7.48401
S 16.34601 11.28698 -7.48400
S 20.65642  1.52989 -7.48401
S 11.65249  8.51077 -7.48401
S 25.34995  4.30609 -7.48401
S 16.40433  5.83451 -7.48401
S 20.59811  6.98235 -7.48401
S 23.80469  6.98242 -7.48401
S 13.19775  5.83444 -7.48401
S 23.74654  1.52945 -7.48401
S 13.25590 11.28741 -7.48400
S 19.05337  4.30605 -7.48401
S 17.94907  8.51081 -7.48401
C 13.37648  8.54105 -7.48401
C 23.62596  4.27581 -7.48401
C 15.51573  7.31203 -7.48401
C 21.48671  5.50483 -7.48401
C 15.51036  9.77886 -7.48401
C 21.49208  3.03800 -7.48401
C 22.91132  3.03780 -7.48401
C 14.09112  9.77906 -7.48401
C 20.77735  4.27587 -7.48401
C 16.22509  8.54099 -7.48401
C 22.91642  5.50468 -7.48401
C 14.08602  7.31218 -7.48401
Fe 18.50121  6.40843  7.48401
Fe 22.20120  0.00073  7.48401
Fe 11.10081  6.40818  7.48401
S 16.34601 11.28697  7.48401
S 20.65642  1.52989  7.48401
S 11.65249  8.51076  7.48401
S 25.34994  4.30609  7.48401
S 16.40432  5.83451  7.48401
S 20.59810  6.98235  7.48401
S 23.80469  6.98242  7.48401
S 13.19774  5.83444  7.48401
S 23.74654  1.52945  7.48401
S 13.25589 11.28741  7.48401
S 19.05336  4.30605  7.48401
S 17.94906  8.51081  7.48401
C 13.37648  8.54105  7.48401
C 23.62595  4.27581  7.48401
C 15.51572  7.31203  7.48401
C 21.48671  5.50483  7.48401
C 15.51035  9.77886  7.48401
C 21.49208  3.03800  7.48401
C 22.91131  3.03780  7.48401
C 14.09111  9.77906  7.48401
C 20.77734  4.27587  7.48401
C 16.22509  8.54099  7.48401
C 22.91641  5.50467  7.48401
C 14.08602  7.31218  7.48401
Fe 18.50121  6.40843 22.45203
Fe 22.20120  0.00072 22.45202
Fe 11.10081  6.40818 22.45202
S 16.34600 11.28697 22.45203
S 20.65641  1.52989 22.45202
S 11.65248  8.51076 22.45203
S 25.34994  4.30609 22.45203
S 16.40432  5.83451 22.45202
S 20.59810  6.98235 22.45203
S 23.80468  6.98242 22.45203
S 13.19774  5.83444 22.45202
S 23.74653  1.52945 22.45202
S 13.25588 11.28741 22.45203
S 19.05336  4.30605 22.45202
S 17.94906  8.51081 22.45203
C 13.37647  8.54105 22.45203
C 23.62595  4.27581 22.45202
C 15.51572  7.31203 22.45203
C 21.48670  5.50483 22.45203
C 15.51034  9.77886 22.45203
C 21.49207  3.03800 22.45202
C 22.91131  3.03780 22.45202
C 14.09111  9.77906 22.45203
C 20.77734  4.27587 22.45202
C 16.22508  8.54099 22.45203
C 22.91641  5.50467 22.45203
C 14.08601  7.31218 22.45203
Fe 11.10123 19.22384 -7.48400
Fe 14.80123 12.81613 -7.48400
Fe  3.70083 19.22359 -7.48400
S  8.94603 24.10238 -7.48400
S 13.25644 14.34529 -7.48400
S  4.25251 21.32617 -7.48400
S 17.94996 17.12150 -7.48400
S  9.00434 18.64991 -7.48400
S 13.19812 19.79776 -7.48400
S 16.40471 19.79783 -7.48400
S  5.79777 18.64985 -7.48400
S 16.34656 14.34486 -7.48400
S  5.85591 24.10282 -7.48400
S 11.65338 17.12146 -7.48400
S 10.54909 21.32622 -7.48400
C  5.97650 21.35646 -7.48400
C 16.22598 17.09122 -7.48400
C  8.11574 20.12744 -7.48400
C 14.08673 18.32024 -7.48400
C  8.11037 22.59427 -7.48400
C 14.09210 15.85341 -7.48400
C 15.51133 15.85321 -7.48400
C  6.69114 22.59447 -7.48400
C 13.37736 17.09128 -7.48400
C  8.82511 21.35640 -7.48400
C 15.51644 18.32008 -7.48400
C  6.68604 20.12759 -7.48400
Fe 11.10123 19.22384  7.48401
Fe 14.80122 12.81613  7.48401
Fe  3.70083 19.22359  7.48401
S  8.94603 24.10238  7.48401
S 13.25643 14.34529  7.48401
S  4.25250 21.32617  7.48401
S 17.94996 17.12150  7.48401
S  9.00434 18.64991  7.48401
S 13.19812 19.79776  7.48401
S 16.40471 19.79782  7.48401
S  5.79776 18.64985  7.48401
S 16.34655 14.34486  7.48401
S  5.85591 24.10282  7.48401
S 11.65338 17.12146  7.48401
S 10.54908 21.32622  7.48401
C  5.97649 21.35645  7.48401
C 16.22597 17.09122  7.48401
C  8.11574 20.12744  7.48401
C 14.08672 18.32024  7.48401
C  8.11037 22.59427  7.48401
C 14.09209 15.85341  7.48401
C 15.51133 15.85321  7.48401
C  6.69113 22.59447  7.48401
C 13.37736 17.09128  7.48401
C  8.82510 21.35640  7.48401
C 15.51643 18.32008  7.48401
C  6.68603 20.12759  7.48401
Fe 11.10122 19.22384 22.45203
Fe 14.80121 12.81613 22.45203
Fe  3.70082 19.22359 22.45203
S  8.94602 24.10238 22.45203
S 13.25643 14.34529 22.45203
S  4.25250 21.32617 22.45203
S 17.94995 17.12150 22.45203
S  9.00433 18.64991 22.45203
S 13.19811 19.79776 22.45203
S 16.40470 19.79782 22.45203
S  5.79776 18.64985 22.45203
S 16.34655 14.34486 22.45203
S  5.85590 24.10282 22.45203
S 11.65337 17.12146 22.45203
S 10.54907 21.32622 22.45203
C  5.97649 21.35645 22.45203
C 16.22596 17.09122 22.45203
C  8.11573 20.12744 22.45203
C 14.08672 18.32024 22.45203
C  8.11036 22.59426 22.45203
C 14.09209 15.85341 22.45203
C 15.51132 15.85321 22.45203
C  6.69113 22.59447 22.45203
C 13.37735 17.09128 22.45203
C  8.82510 21.35640 22.45203
C 15.51642 18.32008 22.45203
C  6.68603 20.12759 22.45203
